168
Lattice="32.78831601 0.0 0.0 0.0 26.29563132 0.0 0.0 0.0 42.161497562142856" Properties=species:S:1:pos:R:3 pbc="F F F"
Si       6.08006464       6.92256907       8.05236080
Si       7.73967019       8.40279392       7.36796601
Si       8.09234027       6.09783449       9.08527158
Si       9.08504557       8.27093063       9.88268469
Si       9.22129177       8.13307356      12.36877509
Si       8.56126577      10.25307607      13.21802874
Si       7.80457607      10.55327601       8.53280644
Si       9.33583752      11.57690034       6.71326680
Si      10.24522312      10.44607533       8.93047247
Si      11.55001909      11.92028630      10.22375074
Si      11.24384258      11.83719185      12.57777031
Si       8.96757321      12.63974328      12.97997818
Si       9.77469627      14.00340236       7.47563609
Si      12.42302052      14.25424431       6.85484764
Si      11.53028087      14.01012318       9.11939391
Si      13.24396023      15.29210438      10.21870878
Si      13.18941799      15.27854255      12.61649779
Si      11.68949043      16.94553057      13.51503595
Si      10.71541967      15.53153590       5.79330779
Si      13.03579493      16.81232241       6.71008671
Si      13.79816014      17.21496310       8.94792312
Si      15.09850869      19.00652152       9.91762534
Si      14.99994596      18.57430038      12.33522109
Si      12.81259100      19.03903392      13.18974329
Si       9.07706789       6.76741228       6.15479206
Si      11.37564204       7.57040237       6.56667738
Si      11.31204969       8.05977506       8.92235576
Si      13.34642514       8.64412773      10.03363739
Si      13.37502570       8.69734600      12.35773876
Si      11.26454216       9.43770990      13.09468557
Si      11.34848311      10.00015825       6.66712962
Si      13.54764730      10.90015799       7.04266327
Si      13.54680993      10.97350223       9.44850767
Si      15.39622882      12.03578807      10.37248732
Si      15.24338502      11.90045775      12.74387288
Si      13.17604251      13.00351850      13.39203197
Si      13.91154395      12.84264542       5.66880582
Si      15.66588273      13.90264006       6.98189771
Si      15.29945961      14.21781666       9.41086973
Si      17.16753249      15.44331139      10.30121356
Si      17.18031304      15.28181754      12.69085159
Si      15.18471600      16.38601848      13.27162381
Si      15.38575670      16.26450400       6.83759600
Si      17.39762203      17.67567465       6.93694819
Si      17.08442508      17.70577194       9.35282329
Si      19.01431902      18.57273653      10.42864369
Si      18.92155061      18.68013381      12.80171045
Si      16.82705781      19.68698362      13.39355120
Si      13.31132716       6.24633908       5.65425087
Si      15.42970532       7.06307770       6.75432227
Si      15.31170381       7.99144484       8.93938440
Si      17.25201926       8.62985925      10.12670786
Si      17.36656415       8.10062484      12.49874163
Si      15.46240535       9.52069062      13.21198072
Si      15.41859160       9.45374920       6.75110433
Si      17.32781153      10.89377459       7.04260746
Si      17.25954819      10.92820758       9.45391587
Si      19.04835613      12.07929659      10.39945150
Si      19.14878451      11.90662060      12.76194126
Si      17.19869929      13.03945958      13.51394326
Si      17.60290166      12.98757150       5.82625844
Si      19.40312500      13.88697792       7.19486343
Si      19.08725225      14.29435465       9.55470243
Si      21.01576300      15.34511315      10.47035489
Si      21.14474079      15.37583284      12.87760401
Si      19.08574123      16.39771535      13.56027779
Si      19.41644036      16.26050551       6.96240219
Si      21.37848072      17.62393627       7.23190175
Si      20.98628992      17.58763289       9.61543554
Si      23.00221501      18.08216695      10.75188744
Si      22.83854230      18.84152567      13.01414185
Si      20.81061522      19.97273438      13.46252191
Si      17.82667836       6.51022224       6.78895033
Si      18.96995702       7.66575950       5.00000000
Si      18.89501231       7.92143040       8.51467735
Si      21.25137298       8.56702553       9.13313140
Si      21.33644485       9.30082301      11.48713875
Si      19.32674200       9.52206863      12.87523287
Si      19.19312535       9.45557580       6.63467742
Si      21.46388385      10.15547724       7.01182474
Si      21.11399030      11.25244286       9.63226619
Si      22.75600209      12.27570883      11.11915067
Si      23.05280145      10.59134791      12.71175534
Si      21.28174042      12.95112089      13.08409770
Si      21.46187611      12.52662860       7.45042480
Si      23.67982934      13.52414560       7.58108449
Si      23.15553983      14.36727061       9.84532582
Si      24.45959239      16.05954405      10.90332104
Si      25.17594419      15.77823145      13.23805325
Si      22.97037813      16.61849769      13.90911432
Si      23.06118965      15.81294565       7.37755800
Si      24.03091503      17.86173619       6.84879978
Si      24.66425127      18.45635983       9.12904726
Si      26.38224192      17.46858527      10.40944240
Si      26.36914499      17.90800196      12.77826768
Si      24.99940540      19.78542611      13.25313627
H        5.00000000       7.36873510       8.98966736
H        5.50702540       6.03493408       6.99500073
H        8.46389995       9.95556941      14.71781776
H        9.12002394      12.74470138      14.51589617
H       11.90984950      16.70414063      15.01073956
H       12.06884732      19.89662347      12.19608734
H       12.84443707      19.84701084      14.46247327
H        8.94507854       5.79922844       7.62870520
H       11.35009323       9.36596992      14.60565561
H       13.14661477      13.03410286      14.90173320
H       15.13098167      16.52337356      14.77869781
H       16.92561784      21.14162215      13.01588903
H       16.71094394      19.66136363      14.89369026
H       13.07833155       5.18527339       6.76264730
H       15.25675173       9.43957394      14.71581582
H       17.20449787      13.11604257      15.02296229
H       18.99155609      16.42030823      15.07024450
H       20.77758905      21.29563132      12.74591015
H       20.74140224      20.29183612      14.92896641
H       17.97144284       5.00000000       6.91031663
H       19.92218787       9.25105999      14.25006882
H       21.85161540      12.62194246      14.45147303
H       22.58672801      16.64132169      15.38057768
H       27.58058302      16.89162767       9.68359527
H       27.78831601      18.13425205      13.25710996
H       25.18007775      20.91600705      12.27680763
H       25.24008186      20.34220371      14.62603772
Ge      16.25762396      12.84632693      25.52659589
C       17.38345698      12.35431986      27.04083795
H       17.84398664      12.14103584      26.07620208
H       16.42713121      12.78427474      27.33862951
I       16.84004881      13.88718217      25.64992434
C       17.38345698      13.33833400      24.01235382
H       16.42713121      12.90837912      23.71456226
H       17.84398664      13.55161803      24.97698969
I       15.87081967      13.97267149      25.38681527
C       15.13179094      14.36056899      26.01860296
H       16.08811671      14.34876630      26.54148125
H       14.67126128      13.70552739      25.27905382
I       16.64442825      13.62146055      24.69752498
C       15.13179094      11.33208487      25.03458882
H       14.67126128      11.98712648      25.77413795
H       16.08811671      11.34388757      24.51171052
I       15.67519911      13.35835147      24.61203566
W       13.10458192      15.52444178      36.85635043
W       14.05025458      14.57876912      34.61065794
W       13.96464628      14.66437742      31.58300097
W       12.53595842      12.96180875      36.71863703
W       13.95972936      11.75510234      34.84797716
W       12.45010178      13.09500970      33.07443066
W       13.89980930      11.58366138      31.48753025
W       13.24072822      10.45024788      37.16149756
W       14.10616874       9.05582881      35.07933222
W       15.66721495      16.09306528      36.71863703
W       16.87392136      14.66929434      34.84797716
W       15.53401400      16.17892192      33.07443066
W       17.04536232      14.72921440      31.48753025
W       15.11294729      13.51607641      36.88384154
W       16.63382334      11.99520036      35.20345987
W       15.57636048      13.05266322      32.91469050
W       17.13080373      11.49821997      31.36519032
W       15.82587415      10.19530823      36.96348678
W       16.70308804       8.56465449      35.05083238
W       15.57412035      10.29908452      33.18130679
W       18.17877582      15.38829548      37.16149756
W       19.57319489      14.52285496      35.07933222
W       18.43371547      12.80314955      36.96348678
W       20.06436921      11.92593566      35.05083238
W       18.32993918      13.05490335      33.18130679
W       18.43547410      10.19354960      36.32496689
W       18.21910283      10.40992087      33.67113059
W       15.49564475      13.13337895      30.04041272
